[General]
network = Network
sim-time-limit = 100h
cpu-time-limit = 200s

#debug-on-errors = true
record-eventlog = true

[Config Sched1]
description = "usual config"

*.nrHP = 2
*.nrMP = 3
*.nrLP =2
Network.sources[*].sendIaTime = 0.5 ms
**.sink.lifetime.result-recording-modes = +vector